03_OpenDSS_Circuits/Mocksville_1_Circuit_Opendss/Elements/Lines.dss
New Line.435572197 Phases= 3 Bus1=435572195.1.2.3 Bus2=259149647.1.2.3 Length=60.66  units=m  Spacing=8'-ARM-STANDARD-3PH wires=['1/0-ACSR-B-6X1' '1/0-ACSR-B-6X1' '1/0-ACSR-B-6X1' '1/0-ACSR-B-6X1']
New Line.263629332 Bus1=263629329.1     Bus2=260860136.1     LineCode=1/0-AL-TRXLPELCJ-25KV Phases= 1 Length=693.20 units=m enable=yes
New Line.254420449 Phases= 1 Bus1=254420446.1     Bus2=254420451.1     Length=53.32  units=m  Spacing=VERTICAL-1-PH-60-1PH wires=['4-ACSR-B-6X1' '4-ACSR-B-6X1']
New Line.624585054 Phases= 3 Bus1=254427502.1.2.3 Bus2=624585052.1.2.3 Length=9.82   units=m  Spacing=HORIZ-LINE-POST-3PH wires=['2-ACSR-B-6X1' '2-ACSR-B-6X1' '2-ACSR-B-6X1' '2-ACSR-B-6X1']
New Line.254399549 Phases= 3 Bus1=254399550.1.2.3 Bus2=254399551.1.2.3 Length=93.51  units=m  Spacing=8'-ARM-NON-CENTER-POST-3PH wires=['336-ACSR-B-18X1' '336-ACSR-B-18X1' '336-ACSR-B-18X1' '1/0-ACSR-B-6X1']
New Line.263801381 Phases= 1 Bus1=254405499.1     Bus2=263801383.1     Length=1.52   units=m  Spacing=VERTICAL-1-PH-104-1PH wires=['1/0-ACSR-B-6X1' '1/0-ACSR-B-6X1']
New Line.262287099 Phases= 1 Bus1=262287096.3     Bus2=254420503.3     Length=99.68  units=m  Spacing=VERTICAL-1-PH-60-1PH wires=['4-ACSR-B-6X1' '4-ACSR-B-6X1']
New Line.254426993 Phases= 1 Bus1=254426990.1     Bus2=254426995.1     Length=75.56  units=m  Spacing=VERTICAL-1-PH-60-1PH wires=['2-ACSR-B-6X1' '2-ACSR-B-6X1']
New Line.872043731 Phases= 1 Bus1=254420936.2     Bus2=872043729.2     Length=24.82  units=m  Spacing=VERTICAL-1-PH-104-1PH wires=['1/0-ACSR-B-6X1' '1/0-ACSR-B-6X1']
New Line.254421099 Phases= 1 Bus1=254421091.3     Bus2=254421101.3     Length=97.55  units=m  Spacing=VERTICAL-1-PH-60-1PH wires=['4-ACSR-B-6X1' '4-ACSR-B-6X1']
New Line.254412745 Phases= 3 Bus1=254412742.1.2.3 Bus2=254412747.1.2.3 Length=58.96  units=m  Spacing=8'-ARM-NON-CENTER-POST-3PH wires=['2-ACSR-B-6X1' '2-ACSR-B-6X1' '2-ACSR-B-6X1' '2-ACSR-B-6X1']
New Line.260110132 Bus1=260110129.2     Bus2=260110134.2     LineCode=1/0-AL-HMWPECN-25KV Phases= 1 Length=25.89  units=m enable=yes
New Line.254426598 Phases= 1 Bus1=254426595.3     Bus2=254426600.3     Length=93.64  units=m  Spacing=VERTICAL-1-PH-60-1PH wires=['2-ACSR-B-6X1' '2-ACSR-B-6X1']
New Line.264194876 Bus1=261059305.2     Bus2=264194874.2     LineCode=1/0-AL-TRXLPELCJ-25KV Phases= 1 Length=42.86  units=m enable=yes
New Line.872043574 Phases= 1 Bus1=872043571.2     Bus2=254420966.2     Length=23.56  units=m  Spacing=VERTICAL-1-PH-60-1PH wires=['2-ACSR-B-6X1' '2-ACSR-B-6X1']
New Line.254420372 Phases= 2 Bus1=254420369.1.2   Bus2=254420374.1.2   Length=99.41  units=m  Spacing=8'-ARM-STANDARD-2PH wires=['2-ACSR-B-6X1' '2-ACSR-B-6X1' '2-ACSR-B-6X1']
New Line.254399479 Phases= 3 Bus1=254399476.1.2.3 Bus2=254399481.1.2.3 Length=22.15  units=m  Spacing=8'-ARM-NON-CENTER-POST-3PH wires=['336-ACSR-B-18X1' '336-ACSR-B-18X1' '336-ACSR-B-18X1' '1/0-ACSR-B-6X1']
New Line.624585638 Phases= 3 Bus1=624585635.1.2.3 Bus2=259322384.1.2.3 Length=17.45  units=m  Spacing=8'-ARM-NON-CENTER-POST-3PH wires=['336-ACSR-B-18X1' '336-ACSR-B-18X1' '336-ACSR-B-18X1' '1/0-ACSR-B-6X1']
New Line.260112451 Bus1=260112448.3     Bus2=260112453.3     LineCode=1/0-AL-TRXLPELCJ-25KV Phases= 1 Length=72.09  units=m enable=yes
New Line.695134681 Phases= 3 Bus1=624586217.1.2.3 Bus2=695134679.1.2.3 Length=1.00   units=m  Spacing=8'-ARM-NON-CENTER-POST-3PH wires=['336-ACSR-B-18X1' '336-ACSR-B-18X1' '336-ACSR-B-18X1' '1/0-ACSR-B-6X1']
New Line.624585025 Phases= 3 Bus1=624585022.1.2.3 Bus2=254427514.1.2.3 Length=25.56  units=m  Spacing=HORIZ-LINE-POST-3PH wires=['2-ACSR-B-6X1' '2-ACSR-B-6X1' '2-ACSR-B-6X1' '2-ACSR-B-6X1']
New Line.709189827 Phases= 3 Bus1=709189824.1.2.3 Bus2=254413389.1.2.3 Length=42.27  units=m  Spacing=8'-ARM-NON-CENTER-POST-3PH wires=['2-ACSR-B-6X1' '2-ACSR-B-6X1' '2-ACSR-B-6X1' '2-ACSR-B-6X1']
New Line.254420919 Phases= 1 Bus1=254420911.2     Bus2=254420921.2     Length=151.80 units=m  Spacing=VERTICAL-1-PH-60-1PH wires=['4-ACSR-B-6X1' '4-ACSR-B-6X1']
New Line.274917596 Bus1=262288992.1     Bus2=274917595.1     LineCode=1/0-AL-HMWPECN-25KV Phases= 1 Length=1.00   units=m enable=yes
New Line.262285218 Phases= 1 Bus1=262285215.3     Bus2=254413023.3     Length=126.40 units=m  Spacing=VERTICAL-1-PH-60-1PH wires=['4-ACSR-B-6X1' '4-ACSR-B-6X1']
New Line.254413203 Phases= 1 Bus1=254413200.1     Bus2=254413205.1     Length=131.20 units=m  Spacing=VERTICAL-1-PH-60-1PH wires=['2-ACSR-B-6X1' '2-ACSR-B-6X1']
New Line.254412066 Phases= 3 Bus1=254412063.1.2.3 Bus2=254412068.1.2.3 Length=46.76  units=m  Spacing=8'-ARM-NON-CENTER-POST-3PH wires=['336-ACSR-B-18X1' '336-ACSR-B-18X1' '336-ACSR-B-18X1' '1/0-ACSR-B-6X1']
New Line.254406634 Phases= 3 Bus1=254406626.1.2.3 Bus2=254406636.1.2.3 Length=49.03  units=m  Spacing=8'-ARM-NON-CENTER-POST-3PH wires=['2-ACSR-B-6X1' '2-ACSR-B-6X1' '2-ACSR-B-6X1' '1/0-ACSR-B-6X1']
New Line.435572196 Phases= 3 Bus1=259149646.1.2.3 Bus2=435572195.1.2.3 Length=33.97  units=m  Spacing=8'-ARM-STANDARD-3PH wires=['1/0-ACSR-B-6X1' '1/0-ACSR-B-6X1' '1/0-ACSR-B-6X1' '1/0-ACSR-B-6X1']
New Line.872043782 Phases= 1 Bus1=254420891.2     Bus2=872043780.2     Length=56.31  units=m  Spacing=VERTICAL-1-PH-60-1PH wires=['2-ACSR-B-6X1' '2-ACSR-B-6X1']
New Line.254406026 Phases= 1 Bus1=254406013.2     Bus2=254406028.2     Length=46.06  units=m  Spacing=VERTICAL-1-PH-60-1PH wires=['1/0-ACSR-B-6X1' '1/0-ACSR-B-6X1']
New Line.254420245 Phases= 2 Bus1=254420237.1.2   Bus2=254420247.1.2   Length=15.66  units=m  Spacing=8'-ARM-STANDARD-2PH wires=['4-ACSR-B-6X1' '4-ACSR-B-6X1' '4-ACSR-B-6X1']
New Line.254421079 Phases= 1 Bus1=254421076.3     Bus2=254421081.3     Length=220.60 units=m  Spacing=VERTICAL-1-PH-60-1PH wires=['4-ACSR-B-6X1' '4-ACSR-B-6X1']
New Line.254406086 Phases= 1 Bus1=254406078.2     Bus2=254406088.2     Length=69.88  units=m  Spacing=VERTICAL-1-PH-60-1PH wires=['1/0-ACSR-B-6X1' '1/0-ACSR-B-6X1']
New Line.254421104 Phases= 1 Bus1=254421101.3     Bus2=254421106.3     Length=98.40  units=m  Spacing=VERTICAL-1-PH-60-1PH wires=['2-ACSR-B-6X1' '2-ACSR-B-6X1']
New Line.624622404 Phases= 3 Bus1=254399481.1.2.3 Bus2=624622402.1.2.3 Length=17.01  units=m  Spacing=8'-ARM-NON-CENTER-POST-3PH wires=['336-ACSR-B-18X1' '336-ACSR-B-18X1' '336-ACSR-B-18X1' '1/0-ACSR-B-6X1']
New Line.254405856 Phases= 3 Bus1=254405723.1.2.3 Bus2=254405858.1.2.3 Length=35.53  units=m  Spacing=8'-ARM-NON-CENTER-POST-3PH wires=['1/0-ACSR-B-6X1' '1/0-ACSR-B-6X1' '1/0-ACSR-B-6X1' '2-ACSR-B-6X1']
New Line.254413350 Phases= 3 Bus1=254413345.1.2.3 Bus2=254413352.1.2.3 Length=104.30 units=m  Spacing=8'-ARM-NON-CENTER-POST-3PH wires=['2-ACSR-B-6X1' '2-ACSR-B-6X1' '2-ACSR-B-6X1' '2-ACSR-B-6X1']
New Line.264339849 Bus1=261177678.2     Bus2=264339846.2     LineCode=1/0-AL-TRXLPELCJ-25KV Phases= 1 Length=95.36  units=m enable=yes
New Line.624259539 Phases= 1 Bus1=624259496.1     Bus2=624259537.1     Length=43.62  units=m  Spacing=VERTICAL-1-PH-60-1PH wires=['4-ACSR-B-6X1' '4-ACSR-B-6X1']
New Line.254420617 Phases= 2 Bus1=254420599.2.3   Bus2=254420619.2.3   Length=59.92  units=m  Spacing=8'-ARM-STANDARD-2PH wires=['2-ACSR-B-6X1' '2-ACSR-B-6X1' '2-ACSR-B-6X1']
New Line.254406330 Phases= 1 Bus1=254406327.3     Bus2=254406332.3     Length=64.35  units=m  Spacing=VERTICAL-1-PH-60-1PH wires=['2-ACSR-B-6X1' '2-ACSR-B-6X1']
New Line.259411990 Phases= 1 Bus1=254426760.2     Bus2=259411992.2     Length=16.00  units=m  Spacing=VERTICAL-1-PH-104-1PH wires=['2-ACSR-B-6X1' '2-ACSR-B-6X1']
New Line.695134626 Phases= 3 Bus1=695134623.1.2.3 Bus2=624622412.1.2.3 Length=17.97  units=m  Spacing=8'-ARM-NON-CENTER-POST-3PH wires=['336-ACSR-B-18X1' '336-ACSR-B-18X1' '336-ACSR-B-18X1' '1/0-ACSR-B-6X1']
New Line.259118274 Phases= 3 Bus1=259118275.1.2.3 Bus2=254406543.1.2.3 Length=14.55  units=m  Spacing=8'-ARM-STANDARD-3PH wires=['1/0-ACSR-B-6X1' '1/0-ACSR-B-6X1' '1/0-ACSR-B-6X1' '1/0-ACSR-B-6X1']
New Line.624259893 Phases= 1 Bus1=624259890.1     Bus2=254412143.1     Length=25.56  units=m  Spacing=VERTICAL-1-PH-60-1PH wires=['2-ACSR-B-6X1' '2-ACSR-B-6X1']
New Line.254406181 Phases= 3 Bus1=254406173.1.2.3 Bus2=254406183.1.2.3 Length=18.12  units=m  Spacing=8'-ARM-NON-CENTER-POST-3PH wires=['1/0-ACSR-B-6X1' '1/0-ACSR-B-6X1' '1/0-ACSR-B-6X1' '1/0-ACSR-B-6X1']
New Line.254405941 Phases= 1 Bus1=254405938.2     Bus2=254405943.2     Length=28.81  units=m  Spacing=VERTICAL-1-PH-60-1PH wires=['1/0-ACSR-B-6X1' '2-ACSR-B-6X1']
New Line.254413377 Phases= 3 Bus1=254413374.1.2.3 Bus2=254413379.1.2.3 Length=37.22  units=m  Spacing=8'-ARM-NON-CENTER-POST-3PH wires=['2-ACSR-B-6X1' '2-ACSR-B-6X1' '2-ACSR-B-6X1' '2-ACSR-B-6X1']
New Line.254426638 Phases= 1 Bus1=254426635.3     Bus2=254426640.3     Length=163.00 units=m  Spacing=VERTICAL-1-PH-60-1PH wires=['2-ACSR-B-6X1' '2-ACSR-B-6X1']
New Line.254412615 Phases= 1 Bus1=254412612.2     Bus2=254412617.2     Length=95.11  units=m  Spacing=VERTICAL-1-PH-60-1PH wires=['2-ACSR-B-6X1' '2-ACSR-B-6X1']
New Line.263715727 Bus1=259224649.1     Bus2=263715729.1     LineCode=1/0-AL-TRXLPELCJ-25KV Phases= 1 Length=1.52   units=m enable=yes
New Line.695104915 Phases= 1 Bus1=435573484.1     Bus2=695104913.1     Length=27.49  units=m  Spacing=VERTICAL-1-PH-60-1PH wires=['2-ACSR-B-6X1' '2-ACSR-B-6X1']
New Line.616213608 Phases= 3 Bus1=254412358.1.2.3 Bus2=616213606.1.2.3 Length=53.56  units=m  Spacing=8'-ARM-NON-CENTER-POST-3PH wires=['336-ACSR-B-18X1' '336-ACSR-B-18X1' '336-ACSR-B-18X1' '1/0-ACSR-B-6X1']
New Line.262287229 Bus1=254421086.3     Bus2=262287231.3     LineCode=1/0-AL-HMWPECN-25KV Phases= 1 Length=1.52   units=m enable=yes
New Line.254421181 Phases= 3 Bus1=254421178.1.2.3 Bus2=254421183.1.2.3 Length=104.10 units=m  Spacing=8'-ARM-NON-CENTER-POST-3PH wires=['1/0-ACSR-B-6X1' '1/0-ACSR-B-6X1' '1/0-ACSR-B-6X1' '2-ACSR-B-6X1']
New Line.700301234 Phases= 3 Bus1=700301229.1.2.3 Bus2=695134751.1.2.3 Length=6.24   units=m  Spacing=8'-ARM-NON-CENTER-POST-3PH wires=['336-ACSR-B-18X1' '336-ACSR-B-18X1' '336-ACSR-B-18X1' '1/0-ACSR-B-6X1']
New Line.262283468 Phases= 1 Bus1=262283465.2     Bus2=254405549.2     Length=159.00 units=m  Spacing=VERTICAL-1-PH-60-1PH wires=['2-ACSR-B-6X1' '2-ACSR-B-6X1']
New Line.254427345 Phases= 2 Bus1=254427337.1.3   Bus2=254427347.1.3   Length=80.64  units=m  Spacing=8'-ARM-STANDARD-2PH wires=['1/0-ACSR-B-6X1' '4-ACSR-B-6X1' '4-ACSR-B-6X1']
New Line.254412490 Phases= 1 Bus1=254412487.1     Bus2=254412492.1     Length=57.31  units=m  Spacing=VERTICAL-1-PH-60-1PH wires=['4-ACSR-B-6X1' '4-ACSR-B-6X1']
New Line.254412812 Phases= 1 Bus1=254412809.2     Bus2=254412814.2     Length=110.60 units=m  Spacing=VERTICAL-1-PH-60-1PH wires=['4-ACSR-B-6X1' '4-ACSR-B-6X1']
New Line.254413163 Phases= 1 Bus1=254413155.1     Bus2=254413165.1     Length=61.57  units=m  Spacing=VERTICAL-1-PH-60-1PH wires=['4-ACSR-B-6X1' '4-ACSR-B-6X1']
New Line.259091629 Phases= 3 Bus1=254406492.1.2.3 Bus2=254406496.1.2.3 Length=9.03   units=m  Spacing=8'-ARM-NON-CENTER-POST-3PH wires=['1/0-ACSR-B-6X1' '1/0-ACSR-B-6X1' '1/0-ACSR-B-6X1' '1/0-ACSR-B-6X1']
New Line.262283454 Phases= 1 Bus1=254405472.1     Bus2=262283456.1     Length=1.53   units=m  Spacing=VERTICAL-1-PH-60-1PH wires=['2-ACSR-B-6X1' '2-ACSR-B-6X1']
New Line.435572861 Phases= 3 Bus1=435572856.1.2.3 Bus2=254412410.1.2.3 Length=57.13  units=m  Spacing=8'-ARM-NON-CENTER-POST-3PH wires=['336-ACSR-B-18X1' '336-ACSR-B-18X1' '336-ACSR-B-18X1' '1/0-ACSR-B-6X1']
New Line.262285249 Bus1=254413280.1     Bus2=262285251.1     LineCode=2-AL-HMWPECN-25KV Phases= 1 Length=1.53   units=m enable=yes
New Line.261280523 Bus1=261280515.3     Bus2=261280519.3     LineCode=1/0-AL-TRXLPELCJ-25KV Phases= 1 Length=11.69  units=m enable=yes
New Line.260111226 Bus1=260111223.3     Bus2=260111228.3     LineCode=1/0-AL-HMWPECN-25KV Phases= 1 Length=95.60  units=m enable=yes
New Line.254413128 Phases= 3 Bus1=254413125.1.2.3 Bus2=254413130.1.2.3 Length=122.30 units=m  Spacing=8'-ARM-NON-CENTER-POST-3PH wires=['1/0-ACSR-B-6X1' '1/0-ACSR-B-6X1' '1/0-ACSR-B-6X1' '1/0-ACSR-B-6X1']
New Line.262283670 Phases= 1 Bus1=254406596.3     Bus2=262283672.3     Length=1.53   units=m  Spacing=VERTICAL-1-PH-60-1PH wires=['2-ACSR-B-6X1' '2-ACSR-B-6X1']
New Line.624259597 Phases= 3 Bus1=254412173.1.2.3 Bus2=624259595.1.2.3 Length=54.93  units=m  Spacing=8'-ARM-NON-CENTER-POST-3PH wires=['336-ACSR-B-18X1' '336-ACSR-B-18X1' '336-ACSR-B-18X1' '1/0-ACSR-B-6X1']
New Line.254406016 Phases= 1 Bus1=254406008.2     Bus2=254406018.2     Length=66.25  units=m  Spacing=VERTICAL-1-PH-60-1PH wires=['2-ACSR-B-6X1' '2-ACSR-B-6X1']
New Line.254420265 Phases= 2 Bus1=254420262.1.2   Bus2=254420267.1.2   Length=125.90 units=m  Spacing=8'-ARM-STANDARD-2PH wires=['2-ACSR-B-6X1' '2-ACSR-B-6X1' '2-ACSR-B-6X1']
New Line.260111251 Bus1=260111252.3     Bus2=260111253.3     LineCode=1/0-AL-HMWPECN-25KV Phases= 1 Length=111.10 units=m enable=yes
New Line.264166622 Phases= 3 Bus1=254421193.1.2.3 Bus2=264166624.1.2.3 Length=1.52   units=m  Spacing=8'-ARM-NON-CENTER-POST-3PH wires=['2-ACSR-B-6X1' '2-ACSR-B-6X1' '2-ACSR-B-6X1' '2-ACSR-B-6X1']
New Line.624259578 Phases= 3 Bus1=624259575.1.2.3 Bus2=624259564.1.2.3 Length=52.01  units=m  Spacing=8'-ARM-NON-CENTER-POST-3PH wires=['336-ACSR-B-18X1' '336-ACSR-B-18X1' '336-ACSR-B-18X1' '1/0-ACSR-B-6X1']
New Line.254405806 Phases= 1 Bus1=254405803.1     Bus2=254405808.1     Length=41.86  units=m  Spacing=VERTICAL-1-PH-60-1PH wires=['1/0-ACSR-B-6X1' '1/0-ACSR-B-6X1']
New Line.624259498 Phases= 1 Bus1=254426849.1     Bus2=624259496.1     Length=38.68  units=m  Spacing=VERTICAL-1-PH-60-1PH wires=['4-ACSR-B-6X1' '4-ACSR-B-6X1']
New Line.709189971 Phases= 3 Bus1=254413352.1.2.3 Bus2=709189969.1.2.3 Length=139.40 units=m  Spacing=8'-ARM-NON-CENTER-POST-3PH wires=['2-ACSR-B-6X1' '2-ACSR-B-6X1' '2-ACSR-B-6X1' '2-ACSR-B-6X1']
New Line.262285118 Phases= 1 Bus1=262285115.2     Bus2=254412627.2     Length=65.72  units=m  Spacing=VERTICAL-1-PH-60-1PH wires=['2-ACSR-B-6X1' '2-ACSR-B-6X1']
New Line.254420889 Phases= 1 Bus1=254420886.2     Bus2=254420891.2     Length=31.69  units=m  Spacing=VERTICAL-1-PH-60-1PH wires=['4-ACSR-B-6X1' '4-ACSR-B-6X1']
New Line.254412600 Phases= 1 Bus1=254412542.2     Bus2=254412602.2     Length=42.20  units=m  Spacing=VERTICAL-1-PH-60-1PH wires=['2-ACSR-B-6X1' '2-ACSR-B-6X1']
New Line.624252554 Phases= 2 Bus1=624252551.1.2   Bus2=254426705.1.2   Length=61.99  units=m  Spacing=8'-ARM-STANDARD-2PH wires=['1/0-ACSR-B-6X1' '1/0-ACSR-B-6X1' '1/0-ACSR-B-6X1']
New Line.254426938 Phases= 1 Bus1=254426935.1     Bus2=254426940.1     Length=19.92  units=m  Spacing=VERTICAL-1-PH-60-1PH wires=['4-ACSR-B-6X1' '4-ACSR-B-6X1']
New Line.705406410 Phases= 1 Bus1=254426600.3     Bus2=705406408.3     Length=20.24  units=m  Spacing=VERTICAL-1-PH-60-1PH wires=['2-ACSR-B-6X1' '2-ACSR-B-6X1']
New Line.709189264 Phases= 1 Bus1=254420127.2     Bus2=709189262.2     Length=102.20 units=m  Spacing=VERTICAL-1-PH-60-1PH wires=['2-ACSR-B-6X1' '2-ACSR-B-6X1']
New Line.705407375 Phases= 1 Bus1=254426560.2     Bus2=705407373.2     Length=74.90  units=m  Spacing=VERTICAL-1-PH-60-1PH wires=['2-ACSR-B-6X1' '2-ACSR-B-6X1']
New Line.260112476 Bus1=260112473.3     Bus2=260112478.3     LineCode=1/0-AL-TRXLPELCJ-25KV Phases= 1 Length=64.61  units=m enable=yes
New Line.254412381 Phases= 1 Bus1=254412378.2     Bus2=254412383.2     Length=19.91  units=m  Spacing=VERTICAL-1-PH-60-1PH wires=['2-ACSR-B-6X1' '2-ACSR-B-6X1']
New Line.261177707 Bus1=261177704.2     Bus2=261177709.2     LineCode=1/0-AL-TRXLPELCJ-25KV Phases= 1 Length=67.93  units=m enable=yes
New Line.254406624 Phases= 3 Bus1=254406601.1.2.3 Bus2=254406626.1.2.3 Length=38.18  units=m  Spacing=8'-ARM-NON-CENTER-POST-3PH wires=['2-ACSR-B-6X1' '2-ACSR-B-6X1' '2-ACSR-B-6X1' '1/0-ACSR-B-6X1']
New Line.872043861 Phases= 1 Bus1=254420731.3     Bus2=872043859.3     Length=1.00   units=m  Spacing=VERTICAL-1-PH-60-1PH wires=['1/0-ACSR-B-6X1' '1/0-ACSR-B-6X1']
New Line.254406161 Phases= 3 Bus1=254405676.1.2.3 Bus2=254406163.1.2.3 Length=87.05  units=m  Spacing=8'-ARM-NON-CENTER-POST-3PH wires=['336-ACSR-B-18X1' '336-ACSR-B-18X1' '336-ACSR-B-18X1' '1/0-ACSR-B-6X1']
New Line.254426918 Phases= 1 Bus1=254426919.1     Bus2=254426920.1     Length=74.09  units=m  Spacing=VERTICAL-1-PH-60-1PH wires=['2-ACSR-B-6X1' '2-ACSR-B-6X1']
New Line.262287157 Phases= 1 Bus1=254420795.2     Bus2=262287159.2     Length=1.53   units=m  Spacing=VERTICAL-1-PH-60-1PH wires=['1/0-ACSR-B-6X1' '1/0-ACSR-B-6X1']
New Line.709188930 Phases= 3 Bus1=709188927.1.2.3 Bus2=254413404.1.2.3 Length=58.76  units=m  Spacing=8'-ARM-NON-CENTER-POST-3PH wires=['2-ACSR-B-6X1' '2-ACSR-B-6X1' '2-ACSR-B-6X1' '2-ACSR-B-6X1']
New Line.254420754 Phases= 1 Bus1=254420751.2     Bus2=254420756.2     Length=40.65  units=m  Spacing=VERTICAL-1-PH-60-1PH wires=['1/0-ACSR-B-6X1' '1/0-ACSR-B-6X1']
New Line.260110217 Bus1=260110214.2     Bus2=260110219.2     LineCode=1/0-AL-HMWPECN-25KV Phases= 1 Length=156.00 units=m enable=yes
New Line.263631450 Bus1=263631447.2     Bus2=260937588.2     LineCode=1/0-AL-TRXLPELCJ-25KV Phases= 1 Length=351.90 units=m enable=yes
New Line.261177677 Bus1=261177674.2     Bus2=261177678.2     LineCode=1/0-AL-TRXLPELCJ-25KV Phases= 1 Length=65.48  units=m enable=yes
New Line.262285122 Bus1=254412632.2     Bus2=262285124.2     LineCode=1/0-AL-HMWPECN-25KV Phases= 1 Length=1.53   units=m enable=yes
New Line.695105403 Phases= 1 Bus1=254426980.1     Bus2=695105401.1     Length=32.91  units=m  Spacing=VERTICAL-1-PH-60-1PH wires=['4-ACSR-B-6X1' '4-ACSR-B-6X1']
New Line.254406696 Phases= 3 Bus1=254406693.1.2.3 Bus2=254406698.1.2.3 Length=77.93  units=m  Spacing=8'-ARM-NON-CENTER-POST-3PH wires=['2-ACSR-B-6X1' '2-ACSR-B-6X1' '2-ACSR-B-6X1' '2-ACSR-B-6X1']
New Line.254426833 Phases= 1 Bus1=254426830.1     Bus2=254426835.1     Length=23.18  units=m  Spacing=VERTICAL-1-PH-60-1PH wires=['2-ACSR-B-6X1' '2-ACSR-B-6X1']
New Line.254427395 Phases= 1 Bus1=254427392.3     Bus2=254427397.3     Length=14.27  units=m  Spacing=VERTICAL-1-PH-60-1PH wires=['4-ACSR-B-6X1' '4-ACSR-B-6X1']
New Line.254406399 Phases= 3 Bus1=254406381.1.2.3 Bus2=254406401.1.2.3 Length=138.70 units=m  Spacing=8'-ARM-NON-CENTER-POST-3PH wires=['1/0-ACSR-B-6X1' '1/0-ACSR-B-6X1' '1/0-ACSR-B-6X1' '1/0-ACSR-B-6X1']
New Line.624259789 Phases= 1 Bus1=254412273.2     Bus2=624259787.2     Length=77.77  units=m  Spacing=VERTICAL-1-PH-60-1PH wires=['2-ACSR-B-6X1' '2-ACSR-B-6X1']
New Line.254412590 Phases= 1 Bus1=254412582.2     Bus2=254412592.2     Length=46.97  units=m  Spacing=VERTICAL-1-PH-60-1PH wires=['4-ACSR-B-6X1' '4-ACSR-B-6X1']
New Line.254427278 Phases= 3 Bus1=254427275.1.2.3 Bus2=254427280.1.2.3 Length=23.76  units=m  Spacing=8'-ARM-NON-CENTER-POST-3PH wires=['4-ACSR-B-6X1' '4-ACSR-B-6X1' '4-ACSR-B-6X1' '4-ACSR-B-6X1']
New Line.260944690 Bus1=260113693.3     Bus2=260944692.3     LineCode=1/0-AL-TRXLPELCJ-25KV Phases= 1 Length=123.70 units=m enable=yes
New Line.262289089 Bus1=254427536.1.2.3 Bus2=262289091.1.2.3 LineCode=1/0-AL-HMWPECN-25KV Phases= 3 Length=1.53   units=m enable=yes
New Line.264194998 Bus1=264195000.3     Bus2=260113733.3     LineCode=1/0-AL-HMWPECN-25KV Phases= 1 Length=1.53   units=m enable=yes
New Line.264592979 Phases= 1 Bus1=254420334.2     Bus2=264592981.2     Length=1.53   units=m  Spacing=VERTICAL-1-PH-60-1PH wires=['2-ACSR-B-6X1' '2-ACSR-B-6X1']
New Line.254420864 Phases= 2 Bus1=254420861.2.3   Bus2=254420866.2.3   Length=80.62  units=m  Spacing=8'-ARM-STANDARD-2PH wires=['4-ACSR-B-6X1' '4-ACSR-B-6X1' '4-ACSR-B-6X1']
New Line.872043490 Phases= 1 Bus1=872043487.2     Bus2=254420836.2     Length=39.65  units=m  Spacing=VERTICAL-1-PH-60-1PH wires=['2-ACSR-B-6X1' '2-ACSR-B-6X1']
New Line.254399564 Phases= 1 Bus1=254399561.3     Bus2=254399566.3     Length=25.66  units=m  Spacing=VERTICAL-1-PH-60-1PH wires=['4-ACSR-B-6X1' '4-ACSR-B-6X1']
New Line.435573570 Phases= 3 Bus1=254413080.1.2.3 Bus2=435573572.1.2.3 Length=1.51   units=m  Spacing=8'-ARM-NON-CENTER-POST-3PH wires=['1/0-ACSR-B-6X1' '1/0-ACSR-B-6X1' '1/0-ACSR-B-6X1' '1/0-ACSR-B-6X1']
New Line.254427340 Phases= 1 Bus1=254427337.1     Bus2=254427342.1     Length=63.60  units=m  Spacing=VERTICAL-1-PH-60-1PH wires=['1/0-ACSR-WP-6X1' '1/0-ACSR-WP-6X1']
New Line.254412535 Phases= 1 Bus1=254412532.2     Bus2=254412537.2     Length=54.06  units=m  Spacing=VERTICAL-1-PH-60-1PH wires=['4-ACSR-B-6X1' '4-ACSR-B-6X1']
New Line.262287202 Phases= 1 Bus1=254420866.2     Bus2=262287204.2     Length=1.53   units=m  Spacing=VERTICAL-1-PH-60-1PH wires=['4-ACSR-B-6X1' '4-ACSR-B-6X1']
New Line.261303868 Bus1=261303869.1     Bus2=261303870.1     LineCode=1/0-AL-TRXLPELCJ-25KV Phases= 1 Length=172.00 units=m enable=yes
New Line.254406500 Phases= 3 Bus1=254406173.1.2.3 Bus2=254406502.1.2.3 Length=58.37  units=m  Spacing=8'-ARM-NON-CENTER-POST-3PH wires=['336-ACSR-B-18X1' '336-ACSR-B-18X1' '336-ACSR-B-18X1' '1/0-ACSR-B-6X1']
New Line.872043663 Phases= 1 Bus1=254420936.2     Bus2=872043661.2     Length=41.86  units=m  Spacing=VERTICAL-1-PH-60-1PH wires=['2-ACSR-B-6X1' '2-ACSR-B-6X1']
New Line.254412715 Phases= 1 Bus1=254412716.2     Bus2=254412717.2     Length=23.13  units=m  Spacing=VERTICAL-1-PH-60-1PH wires=['2-ACSR-B-6X1' '2-ACSR-B-6X1']
New Line.705406490 Phases= 1 Bus1=254426640.3     Bus2=705406488.3     Length=66.19  units=m  Spacing=VERTICAL-1-PH-60-1PH wires=['2-ACSR-B-6X1' '2-ACSR-B-6X1']
New Line.288620115 Phases= 1 Bus1=259172136.2     Bus2=288620113.2     Length=45.95  units=m  Spacing=VERTICAL-1-PH-104-1PH wires=['1/0-ACSR-B-6X1' '1/0-ACSR-B-6X1']
New Line.262285091 Phases= 1 Bus1=262285088.2     Bus2=254412502.2     Length=17.35  units=m  Spacing=VERTICAL-1-PH-60-1PH wires=['4-ACSR-B-6X1' '4-ACSR-B-6X1']
New Line.254413323 Phases= 1 Bus1=254413320.1     Bus2=254413325.1     Length=95.99  units=m  Spacing=VERTICAL-1-PH-60-1PH wires=['2-ACSR-B-6X1' '2-ACSR-B-6X1']
New Line.624586813 Phases= 3 Bus1=422292481.1.2.3 Bus2=624586811.1.2.3 Length=22.22  units=m  Spacing=8'-ARM-NON-CENTER-POST-3PH wires=['336-ACSR-B-18X1' '336-ACSR-B-18X1' '336-ACSR-B-18X1' '1/0-ACSR-B-6X1']
New Line.624251888 Phases= 3 Bus1=624251875.1.2.3 Bus2=624251886.1.2.3 Length=50.49  units=m  Spacing=8'-ARM-NON-CENTER-POST-3PH wires=['336-ACSR-B-18X1' '336-ACSR-B-18X1' '336-ACSR-B-18X1' '1/0-ACSR-B-6X1']
New Line.695134864 Phases= 3 Bus1=254399425.1.2.3 Bus2=695134862.1.2.3 Length=31.14  units=m  Spacing=8'-ARM-NON-CENTER-POST-3PH wires=['336-ACSR-B-18X1' '336-ACSR-B-18X1' '336-ACSR-B-18X1' '1/0-ACSR-B-6X1']
New Line.709189078 Phases= 1 Bus1=709189075.1     Bus2=254420409.1     Length=72.51  units=m  Spacing=VERTICAL-1-PH-60-1PH wires=['2-ACSR-B-6X1' '2-ACSR-B-6X1']
New Line.624585024 Phases= 3 Bus1=254427507.1.2.3 Bus2=624585022.1.2.3 Length=34.78  units=m  Spacing=HORIZ-LINE-POST-3PH wires=['2-ACSR-B-6X1' '2-ACSR-B-6X1' '2-ACSR-B-6X1' '2-ACSR-B-6X1']
New Line.262288942 Phases= 1 Bus1=254426910.1     Bus2=262288944.1     Length=1.52   units=m  Spacing=VERTICAL-1-PH-60-1PH wires=['2-ACSR-B-6X1' '2-ACSR-B-6X1']
New Line.624252431 Phases= 1 Bus1=254412462.1     Bus2=624252429.1     Length=80.89  units=m  Spacing=VERTICAL-1-PH-60-1PH wires=['2-ACSR-B-6X1' '2-ACSR-B-6X1']
New Line.254405532 Phases= 3 Bus1=254405524.1.2.3 Bus2=254405534.1.2.3 Length=43.89  units=m  Spacing=8'-ARM-NON-CENTER-POST-3PH wires=['336-ACSR-B-18X1' '336-ACSR-B-18X1' '336-ACSR-B-18X1' '1/0-ACSR-B-6X1']
New Line.709190027 Phases= 1 Bus1=709190024.1     Bus2=259222600.1     Length=42.19  units=m  Spacing=VERTICAL-1-PH-104-1PH wires=['2-ACSR-B-6X1' '2-ACSR-B-6X1']
New Line.254427445 Phases= 3 Bus1=254427317.1.2.3 Bus2=254427447.1.2.3 Length=51.08  units=m  Spacing=8'-ARM-NON-CENTER-POST-3PH wires=['1/0-ACSR-B-6X1' '1/0-ACSR-B-6X1' '1/0-ACSR-B-6X1' '1/0-ACSR-B-6X1']
New Line.254412665 Phases= 1 Bus1=254412662.3     Bus2=254412667.3     Length=15.41  units=m  Spacing=VERTICAL-1-PH-60-1PH wires=['2-ACSR-B-6X1' '2-ACSR-B-6X1']
New Line.263904960 Phases= 3 Bus1=263904957.1.2.3 Bus2=259414671.1.2.3 Length=40.34  units=m  Spacing=8'-ARM-STANDARD-3PH wires=['336-AAC-B-19' '336-AAC-B-19' '336-AAC-B-19' '1/0-ACSR-B-6X1']
New Line.254420045 Phases= 1 Bus1=254420042.2     Bus2=254420047.2     Length=63.08  units=m  Spacing=VERTICAL-1-PH-60-1PH wires=['4-ACSR-B-6X1' '4-ACSR-B-6X1']
New Line.709189251 Phases= 2 Bus1=254420122.1.2   Bus2=709189249.1.2   Length=121.80 units=m  Spacing=8'-ARM-STANDARD-2PH wires=['4-ACSR-B-6X1' '4-ACSR-B-6X1' '4-ACSR-B-6X1']
New Line.260893636 Bus1=260893637.2     Bus2=260893638.2     LineCode=1/0-AL-TRXLPELCJ-25KV Phases= 1 Length=378.80 units=m enable=yes
New Line.616213715 Phases= 1 Bus1=616213711.2     Bus2=435572857.2     Length=41.04  units=m  Spacing=VERTICAL-1-PH-104-1PH wires=['2-ACSR-B-6X1' '2-ACSR-B-6X1']
New Line.254405876 Phases= 2 Bus1=254405873.2.3   Bus2=254405878.2.3   Length=35.18  units=m  Spacing=8'-ARM-STANDARD-2PH wires=['1/0-ACSR-B-6X1' '1/0-ACSR-B-6X1' '2-ACSR-B-6X1']
New Line.260110137 Bus1=260110134.2     Bus2=260110139.2     LineCode=1/0-AL-HMWPECN-25KV Phases= 1 Length=35.62  units=m enable=yes
New Line.254412166 Phases= 3 Bus1=254412163.1.2.3 Bus2=254412168.1.2.3 Length=40.24  units=m  Spacing=8'-ARM-NON-CENTER-POST-3PH wires=['336-ACSR-B-18X1' '336-ACSR-B-18X1' '336-ACSR-B-18X1' '1/0-ACSR-B-6X1']
New Line.259404957 Phases= 1 Bus1=254426655.3     Bus2=254426659.3     Length=74.21  units=m  Spacing=VERTICAL-1-PH-60-1PH wires=['2-ACSR-B-6X1' '2-ACSR-B-6X1']
New Line.254405966 Phases= 1 Bus1=254405963.2     Bus2=254405968.2     Length=47.43  units=m  Spacing=VERTICAL-1-PH-60-1PH wires=['4-ACSR-B-6X1' '4-ACSR-B-6X1']
New Line.709190001 Phases= 1 Bus1=254413245.1     Bus2=709189999.1     Length=43.09  units=m  Spacing=VERTICAL-1-PH-60-1PH wires=['2-ACSR-B-6X1' '2-ACSR-B-6X1']
New Line.260112396 Bus1=260112393.2     Bus2=260112398.2     LineCode=1/0-AL-HMWPECN-25KV Phases= 1 Length=121.70 units=m enable=yes
New Line.709190002 Phases= 1 Bus1=709189999.1     Bus2=254413250.1     Length=15.53  units=m  Spacing=VERTICAL-1-PH-60-1PH wires=['2-ACSR-B-6X1' '2-ACSR-B-6X1']
New Line.254427310 Phases= 1 Bus1=254427307.3     Bus2=254427312.3     Length=65.75  units=m  Spacing=VERTICAL-1-PH-60-1PH wires=['2-ACSR-B-6X1' '2-ACSR-B-6X1']
New Line.254427128 Phases= 1 Bus1=254427125.1     Bus2=254427130.1     Length=46.79  units=m  Spacing=VERTICAL-1-PH-60-1PH wires=['2-ACSR-B-6X1' '2-ACSR-B-6X1']
New Line.261192804 Bus1=261145107.2     Bus2=261192806.2     LineCode=1/0-AL-TRXLPELCJ-25KV Phases= 1 Length=263.10 units=m enable=yes
New Line.262285245 Phases= 1 Bus1=262285242.1     Bus2=254413150.1     Length=128.20 units=m  Spacing=VERTICAL-1-PH-60-1PH wires=['4-ACSR-B-6X1' '4-ACSR-B-6X1']
New Line.695105944 Phases= 1 Bus1=695105931.1     Bus2=695105942.1     Length=145.80 units=m  Spacing=VERTICAL-1-PH-60-1PH wires=['1/0-ACSR-B-6X1' '1/0-ACSR-B-6X1']
New Line.254406310 Phases= 1 Bus1=254406307.3     Bus2=254406312.3     Length=41.16  units=m  Spacing=VERTICAL-1-PH-60-1PH wires=['1/0-ACSR-B-6X1' '2-ACSR-B-6X1']
New Line.261013839 Bus1=261013836.1     Bus2=261013830.1     LineCode=1/0-AL-TRXLPELCJ-25KV Phases= 1 Length=82.42  units=m enable=yes
New Line.264166555 Phases= 1 Bus1=264166552.1     Bus2=254405519.1     Length=36.09  units=m  Spacing=VERTICAL-1-PH-60-1PH wires=['1/0-ACSR-B-6X1' '1/0-ACSR-B-6X1']
New Line.254405936 Phases= 1 Bus1=254405933.2     Bus2=254405938.2     Length=43.67  units=m  Spacing=VERTICAL-1-PH-60-1PH wires=['1/0-ACSR-B-6X1' '2-ACSR-B-6X1']
New Line.624324170 Phases= 3 Bus1=624324052.1.2.3 Bus2=624324172.1.2.3 Length=1.53   units=m  Spacing=8'-ARM-STANDARD-3PH wires=['1/0-ACSR-B-6X1' '1/0-ACSR-B-6X1' '1/0-ACSR-B-6X1' '1/0-ACSR-B-6X1']
New Line.263904987 Phases= 3 Bus1=263904984.1.2.3 Bus2=254412397.1.2.3 Length=57.25  units=m  Spacing=8'-ARM-NON-CENTER-POST-3PH wires=['2-ACSR-B-6X1' '2-ACSR-B-6X1' '2-ACSR-B-6X1' '2-ACSR-B-6X1']
New Line.262287306 Bus1=262287303.3     Bus2=260112468.3     LineCode=1/0-AL-TRXLPELCJ-25KV Phases= 1 Length=44.36  units=m enable=yes
New Line.254420612 Phases= 2 Bus1=254420599.2.3   Bus2=254420614.2.3   Length=18.50  units=m  Spacing=8'-ARM-STANDARD-2PH wires=['4-ACSR-B-6X1' '4-ACSR-B-6X1' '4-ACSR-B-6X1']
New Line.259498711 Phases= 3 Bus1=254405492.1.2.3 Bus2=254405498.1.2.3 Length=61.64  units=m  Spacing=8'-ARM-NON-CENTER-POST-3PH wires=['336-ACSR-B-18X1' '336-ACSR-B-18X1' '336-ACSR-B-18X1' '1/0-ACSR-B-6X1']
New Line.705406744 Phases= 3 Bus1=705406741.1.2.3 Bus2=254412919.1.2.3 Length=20.22  units=m  Spacing=8'-ARM-NON-CENTER-POST-3PH wires=['2-ACSR-B-6X1' '2-ACSR-B-6X1' '2-ACSR-B-6X1' '2-ACSR-B-6X1']
New Line.254426658 Phases= 1 Bus1=254426659.3     Bus2=254426660.3     Length=60.27  units=m  Spacing=VERTICAL-1-PH-60-1PH wires=['2-ACSR-B-6X1' '2-ACSR-B-6X1']
New Line.259547591 Phases= 1 Bus1=254420636.2     Bus2=259547593.2     Length=74.28  units=m  Spacing=VERTICAL-1-PH-104-1PH wires=['2-ACSR-B-6X1' '2-ACSR-B-6X1']
New Line.263985643 Phases= 1 Bus1=263985640.2     Bus2=254426525.2     Length=116.00 units=m  Spacing=VERTICAL-1-PH-60-1PH wires=['2-ACSR-B-6X1' '2-ACSR-B-6X1']
New Line.259547596 Phases= 1 Bus1=259547593.2     Bus2=259547598.2     Length=74.26  units=m  Spacing=VERTICAL-1-PH-104-1PH wires=['2-ACSR-B-6X1' '2-ACSR-B-6X1']
New Line.705407002 Phases= 1 Bus1=705406999.3     Bus2=254413033.3     Length=76.31  units=m  Spacing=VERTICAL-1-PH-60-1PH wires=['4-ACSR-B-6X1' '4-ACSR-B-6X1']
New Line.254412655 Phases= 3 Bus1=254412652.1.2.3 Bus2=254412657.1.2.3 Length=26.67  units=m  Spacing=8'-ARM-NON-CENTER-POST-3PH wires=['336-ACSR-B-18X1' '336-ACSR-B-18X1' '336-ACSR-B-18X1' '1/0-ACSR-B-6X1']
New Line.254406001 Phases= 1 Bus1=254405998.2     Bus2=254406003.2     Length=55.56  units=m  Spacing=VERTICAL-1-PH-60-1PH wires=['1/0-ACSR-B-6X1' '1/0-ACSR-B-6X1']
New Line.435571457 Phases= 3 Bus1=254399462.1.2.3 Bus2=435571456.1.2.3 Length=31.96  units=m  Spacing=8'-ARM-NON-CENTER-POST-3PH wires=['336-ACSR-B-18X1' '336-ACSR-B-18X1' '336-ACSR-B-18X1' '1/0-ACSR-B-6X1']
New Line.259536194 Phases= 1 Bus1=254421046.3     Bus2=254421050.3     Length=64.82  units=m  Spacing=VERTICAL-1-PH-60-1PH wires=['4-ACSR-B-6X1' '4-ACSR-B-6X1']
New Line.260110157 Bus1=260110154.2     Bus2=260110159.2     LineCode=1/0-AL-HMWPECN-25KV Phases= 1 Length=127.30 units=m enable=yes
New Line.254412740 Phases= 3 Bus1=254412727.1.2.3 Bus2=254412742.1.2.3 Length=34.98  units=m  Spacing=8'-ARM-NON-CENTER-POST-3PH wires=['2-ACSR-B-6X1' '2-ACSR-B-6X1' '2-ACSR-B-6X1' '2-ACSR-B-6X1']
New Line.254420664 Phases= 1 Bus1=254420665.2     Bus2=254420666.2     Length=125.90 units=m  Spacing=VERTICAL-1-PH-60-1PH wires=['2-ACSR-B-6X1' '2-ACSR-B-6X1']
New Line.254427500 Phases= 3 Bus1=254427497.1.2.3 Bus2=254427502.1.2.3 Length=4.27   units=m  Spacing=HORIZ-LINE-POST-3PH wires=['2-ACSR-B-6X1' '2-ACSR-B-6X1' '2-ACSR-B-6X1' '2-ACSR-B-6X1']
New Line.620619233 Phases= 1 Bus1=254427407.3     Bus2=620619231.3     Length=29.27  units=m  Spacing=VERTICAL-1-PH-60-1PH wires=['1/0-ACSR-B-6X1' '1/0-ACSR-B-6X1']
New Line.254406305 Phases= 1 Bus1=254406300.3     Bus2=254406307.3     Length=73.51  units=m  Spacing=VERTICAL-1-PH-60-1PH wires=['1/0-ACSR-B-6X1' '2-ACSR-B-6X1']
New Line.263901496 Bus1=263901493.2     Bus2=261177694.2     LineCode=1/0-AL-TRXLPELCJ-25KV Phases= 1 Length=362.40 units=m enable=yes
New Line.254413313 Phases= 1 Bus1=254413310.1     Bus2=254413315.1     Length=32.00  units=m  Spacing=VERTICAL-1-PH-60-1PH wires=['2-ACSR-B-6X1' '2-ACSR-B-6X1']
New Line.254426693 Phases= 1 Bus1=254426690.1     Bus2=254426695.1     Length=84.97  units=m  Spacing=VERTICAL-1-PH-60-1PH wires=['1/0-ACSR-WP-6X1' '1/0-ACSR-WP-6X1']
New Line.261059309 Bus1=260112418.2     Bus2=261059305.2     LineCode=1/0-AL-TRXLPELCJ-25KV Phases= 1 Length=91.59  units=m enable=yes
New Line.263722549 Phases= 1 Bus1=254412163.2     Bus2=263722551.2     Length=1.52   units=m  Spacing=VERTICAL-1-PH-60-1PH wires=['2-ACSR-B-6X1' '2-ACSR-B-6X1']
New Line.261303893 Bus1=261177694.2     Bus2=261303895.2     LineCode=1/0-AL-TRXLPELCJ-25KV Phases= 1 Length=427.70 units=m enable=yes
New Line.254405542 Phases= 3 Bus1=254405539.1.2.3 Bus2=254405544.1.2.3 Length=54.51  units=m  Spacing=8'-ARM-NON-CENTER-POST-3PH wires=['336-ACSR-B-18X1' '336-ACSR-B-18X1' '336-ACSR-B-18X1' '1/0-ACSR-B-6X1']
New Line.705407565 Phases= 1 Bus1=254426540.1     Bus2=705407563.1     Length=91.65  units=m  Spacing=VERTICAL-1-PH-60-1PH wires=['4-ACSR-B-6X1' '4-ACSR-B-6X1']
New Line.705407516 Phases= 3 Bus1=705407513.1.2.3 Bus2=254426520.1.2.3 Length=86.78  units=m  Spacing=8'-ARM-NON-CENTER-POST-3PH wires=['1/0-ACSR-B-6X1' '1/0-ACSR-B-6X1' '1/0-ACSR-B-6X1' '2-ACSR-B-6X1']
New Line.254406036 Phases= 1 Bus1=254406028.2     Bus2=254406038.2     Length=65.87  units=m  Spacing=VERTICAL-1-PH-60-1PH wires=['1/0-ACSR-B-6X1' '1/0-ACSR-B-6X1']
New Line.435572946 Phases= 1 Bus1=254412462.1     Bus2=435572943.1     Length=65.39  units=m  Spacing=VERTICAL-1-PH-60-1PH wires=['4-ACSR-B-6X1' '4-ACSR-B-6X1']
New Line.709189406 Phases= 2 Bus1=254420207.1.2   Bus2=709189404.1.2   Length=74.50  units=m  Spacing=8'-ARM-STANDARD-2PH wires=['4-ACSR-B-6X1' '4-ACSR-B-6X1' '4-ACSR-B-6X1']
New Line.624585169 Phases= 3 Bus1=624585166.1.2.3 Bus2=254399540.1.2.3 Length=43.32  units=m  Spacing=8'-ARM-NON-CENTER-POST-3PH wires=['336-ACSR-B-18X1' '336-ACSR-B-18X1' '336-ACSR-B-18X1' '1/0-ACSR-B-6X1']
New Line.263802818 Bus1=263802815.1     Bus2=261072116.1     LineCode=1/0-AL-TRXLPELCJ-25KV Phases= 1 Length=114.20 units=m enable=yes
New Line.254406448 Phases= 3 Bus1=254406443.1.2.3 Bus2=254406450.1.2.3 Length=62.54  units=m  Spacing=8'-ARM-NON-CENTER-POST-3PH wires=['1/0-ACSR-B-6X1' '1/0-ACSR-B-6X1' '1/0-ACSR-B-6X1' '1/0-ACSR-B-6X1']
New Line.435571829 Phases= 1 Bus1=435571827.3     Bus2=254406611.3     Length=61.74  units=m  Spacing=VERTICAL-1-PH-60-1PH wires=['2-ACSR-B-6X1' '2-ACSR-B-6X1']
New Line.254412650 Phases= 3 Bus1=254412647.1.2.3 Bus2=254412652.1.2.3 Length=43.11  units=m  Spacing=8'-ARM-NON-CENTER-POST-3PH wires=['336-ACSR-B-18X1' '336-ACSR-B-18X1' '336-ACSR-B-18X1' '1/0-ACSR-B-6X1']
New Line.262283634 Bus1=260011203.1     Bus2=262283636.1     LineCode=1/0-AL-HMWPECN-25KV Phases= 1 Length=1.53   units=m enable=yes
...
